Circuit: * E:\Google Drive\Workspace\Simulations\Draft2.asc

Limiting fall time of source i1 to 0.1
Direct Newton iteration for .op point succeeded.

Date: Fri Mar 20 15:12:09 2020
Total elapsed time: 0.064 seconds.

tnom = 27
temp = 27
method = modified trap
totiter = 2153
traniter = 2133
tranpoints = 1065
accept = 1059
rejected = 6
matrix size = 6
fillins = 0
solver = Normal
Matrix Compiler1:      12 opcodes  0.1/[0.1]/0.1
Matrix Compiler2:      33 opcodes  0.1/[0.1]/0.1

