Circuit: * E:\Google Drive\Workspace\Simulations\FD transformer.asc

.OP point found by inspection.

Date: Tue Mar 10 11:38:59 2020
Total elapsed time: 0.187 seconds.

tnom = 27
temp = 27
method = modified trap
totiter = 2568
traniter = 2568
tranpoints = 1285
accept = 1147
rejected = 138
matrix size = 14
fillins = 3
solver = Normal
Matrix Compiler1: 752 bytes object code size  0.2/0.1/[0.1]
Matrix Compiler2: 1.04 KB object code size  0.1/0.1/[0.1]

