Circuit: * D:\Google Drive\Workspace\Simulations\OffsetAmplifier.asc

Direct Newton iteration for .op point succeeded.

Date: Thu Sep 17 15:50:59 2020
Total elapsed time: 0.112 seconds.

tnom = 27
temp = 27
method = modified trap
totiter = 2533
traniter = 2528
tranpoints = 1206
accept = 1170
rejected = 36
matrix size = 16
fillins = 6
solver = Normal
Matrix Compiler1: 958 bytes object code size  0.4/0.2/[0.2]
Matrix Compiler2: 1.41 KB object code size  0.2/0.3/[0.2]

